/*--------------------------------*- C++ -*----------------------------------*\
  =========                 |
  \\      /  F ield         | OpenFOAM: The Open Source CFD Toolbox
   \\    /   O peration     | Website:  https://openfoam.org
    \\  /    A nd           | Version:  10
     \\/     M anipulation  |
\*---------------------------------------------------------------------------*/
FoamFile
{
    version     2.0;
    format      ascii;
    class       dictionary;
    object      momentumTransport;
}
// * * * * * * * * * * * * * * * * * * * * * * * * * * * * * * * * * * * * * //


// See https://www.cfd-online.com/Tools/turbulence.php

// simulationType laminar;


simulationType RAS;


/*RAS
{
    RASModel        realizableKE;

    turbulence      on;
    
    printCoeffs     on;
}*/


RAS
{
    model           kOmegaSST;

    turbulence      on;

    printCoeffs     on;
}



// ************************************************************************* //
