/*--------------------------------*- C++ -*----------------------------------*\
  =========                 |
  \\      /  F ield         | OpenFOAM: The Open Source CFD Toolbox
   \\    /   O peration     | Website:  https://openfoam.org
    \\  /    A nd           | Version:  9
     \\/     M anipulation  |
\*---------------------------------------------------------------------------*/
FoamFile
{
    format      ascii;
    class       polyBoundaryMesh;
    location    "constant/polyMesh";
    object      boundary;
}
// * * * * * * * * * * * * * * * * * * * * * * * * * * * * * * * * * * * * * //

5
(
    top
    {
        type            patch;
        nFaces          9112;
        startFace       1493489;
    }
    sides
    {
        type            patch;
        nFaces          9112;
        startFace       1502601;
    }
    outlet
    {
        type            patch;
        nFaces          2818;
        startFace       1511713;
    }
    inlet
    {
        type            patch;
        nFaces          2312;
        startFace       1514531;
    }
    ground
    {
        type            wall;
        inGroups        List<word> 1(wall);
        nFaces          16857;
        startFace       1516843;
    }
)

// ************************************************************************* //
